<?xml version="1.0" encoding="UTF-8"?>

<!-- generated on 2026-07-23T06:46:01.757155+07:00 by Eclipse SUMO netconvert 1.27.1
<netconvertConfiguration xmlns:xsi="http://www.w3.org/2001/XMLSchema-instance" xsi:noNamespaceSchemaLocation="http://sumo.dlr.de/xsd/netconvertConfiguration.xsd">

    <input>
        <node-files value="D:\projects\helloworld\Traffic Simulation\sumo_config\grid_2x2\nodes.nod.xml"/>
        <edge-files value="D:\projects\helloworld\Traffic Simulation\sumo_config\grid_2x2\edges.edg.xml"/>
        <connection-files value="D:\projects\helloworld\Traffic Simulation\sumo_config\grid_2x2\connections.con.xml"/>
        <tllogic-files value="D:\projects\helloworld\Traffic Simulation\sumo_config\grid_2x2\tll.tll.xml"/>
    </input>

    <output>
        <output-file value="D:\projects\helloworld\Traffic Simulation\sumo_config\grid_2x2\grid_2x2.net.xml"/>
    </output>

    <report>
        <no-warnings value="true"/>
    </report>

</netconvertConfiguration>
-->

<net version="1.20" junctionCornerDetail="5" limitTurnSpeed="5.50" xmlns:xsi="http://www.w3.org/2001/XMLSchema-instance" xsi:noNamespaceSchemaLocation="http://sumo.dlr.de/xsd/net_file.xsd">

    <location netOffset="150.00,350.00" convBoundary="0.00,0.00,500.00,500.00" origBoundary="-150.00,-350.00,350.00,150.00" projParameter="!"/>

    <edge id=":E0_0" function="internal">
        <lane id=":E0_0_0" index="0" speed="3.65" length="4.67" shape="500.00,348.40 501.20,349.20 501.60,350.00 501.20,350.80 500.00,351.60"/>
    </edge>
    <edge id=":E1_0" function="internal">
        <lane id=":E1_0_0" index="0" speed="3.65" length="4.67" shape="500.00,148.40 501.20,149.20 501.60,150.00 501.20,150.80 500.00,151.60"/>
    </edge>
    <edge id=":J00_0" function="internal">
        <lane id=":J00_0_0" index="0" speed="13.89" length="20.80" shape="145.20,360.40 145.20,339.60"/>
    </edge>
    <edge id=":J00_1" function="internal">
        <lane id=":J00_1_0" index="0" speed="10.10" length="23.22" shape="145.20,360.40 146.57,355.00 150.11,350.11 155.00,346.57 160.40,345.20"/>
    </edge>
    <edge id=":J00_2" function="internal">
        <lane id=":J00_2_0" index="0" speed="8.00" length="14.19" shape="148.40,360.40 147.85,356.55 146.20,353.80 143.45,352.15 139.60,351.60"/>
    </edge>
    <edge id=":J00_3" function="internal">
        <lane id=":J00_3_0" index="0" speed="13.89" length="20.80" shape="148.40,360.40 148.40,339.60"/>
    </edge>
    <edge id=":J00_4" function="internal">
        <lane id=":J00_4_0" index="0" speed="6.51" length="9.03" shape="160.40,354.80 157.95,355.15 156.20,356.20 155.15,357.95 154.80,360.40"/>
    </edge>
    <edge id=":J00_5" function="internal">
        <lane id=":J00_5_0" index="0" speed="13.89" length="20.80" shape="160.40,354.80 139.60,354.80"/>
        <lane id=":J00_5_1" index="1" speed="13.89" length="20.80" shape="160.40,351.60 139.60,351.60"/>
    </edge>
    <edge id=":J00_7" function="internal">
        <lane id=":J00_7_0" index="0" speed="9.26" length="19.35" shape="160.40,351.60 155.15,350.85 151.40,348.60 149.15,344.85 148.40,339.60"/>
    </edge>
    <edge id=":J00_8" function="internal">
        <lane id=":J00_8_0" index="0" speed="13.89" length="20.80" shape="154.80,339.60 154.80,360.40"/>
    </edge>
    <edge id=":J00_9" function="internal">
        <lane id=":J00_9_0" index="0" speed="10.10" length="23.22" shape="154.80,339.60 153.43,345.00 149.89,349.89 145.00,353.43 139.60,354.80"/>
    </edge>
    <edge id=":J00_10" function="internal">
        <lane id=":J00_10_0" index="0" speed="8.00" length="14.19" shape="151.60,339.60 152.15,343.45 153.80,346.20 156.55,347.85 160.40,348.40"/>
    </edge>
    <edge id=":J00_11" function="internal">
        <lane id=":J00_11_0" index="0" speed="13.89" length="20.80" shape="151.60,339.60 151.60,360.40"/>
    </edge>
    <edge id=":J00_12" function="internal">
        <lane id=":J00_12_0" index="0" speed="6.51" length="9.03" shape="139.60,345.20 142.05,344.85 143.80,343.80 144.85,342.05 145.20,339.60"/>
    </edge>
    <edge id=":J00_13" function="internal">
        <lane id=":J00_13_0" index="0" speed="13.89" length="20.80" shape="139.60,345.20 160.40,345.20"/>
        <lane id=":J00_13_1" index="1" speed="13.89" length="20.80" shape="139.60,348.40 160.40,348.40"/>
    </edge>
    <edge id=":J00_15" function="internal">
        <lane id=":J00_15_0" index="0" speed="9.26" length="19.35" shape="139.60,348.40 144.85,349.15 148.60,351.40 150.85,355.15 151.60,360.40"/>
    </edge>
    <edge id=":J01_0" function="internal">
        <lane id=":J01_0_0" index="0" speed="13.89" length="20.80" shape="345.20,360.40 345.20,339.60"/>
    </edge>
    <edge id=":J01_1" function="internal">
        <lane id=":J01_1_0" index="0" speed="10.10" length="5.43" shape="345.20,360.40 346.53,355.14"/>
    </edge>
    <edge id=":J01_2" function="internal">
        <lane id=":J01_2_0" index="0" speed="8.00" length="14.19" shape="348.40,360.40 347.85,356.55 346.20,353.80 343.45,352.15 339.60,351.60"/>
    </edge>
    <edge id=":J01_3" function="internal">
        <lane id=":J01_3_0" index="0" speed="13.89" length="20.80" shape="348.40,360.40 348.40,339.60"/>
    </edge>
    <edge id=":J01_16" function="internal">
        <lane id=":J01_16_0" index="0" speed="10.10" length="17.79" shape="346.53,355.14 346.57,355.00 350.11,350.11 355.00,346.57 360.40,345.20"/>
    </edge>
    <edge id=":J01_4" function="internal">
        <lane id=":J01_4_0" index="0" speed="6.51" length="9.03" shape="360.40,354.80 357.95,355.15 356.20,356.20 355.15,357.95 354.80,360.40"/>
    </edge>
    <edge id=":J01_5" function="internal">
        <lane id=":J01_5_0" index="0" speed="13.89" length="20.80" shape="360.40,354.80 339.60,354.80"/>
        <lane id=":J01_5_1" index="1" speed="13.89" length="20.80" shape="360.40,351.60 339.60,351.60"/>
    </edge>
    <edge id=":J01_7" function="internal">
        <lane id=":J01_7_0" index="0" speed="9.26" length="19.35" shape="360.40,351.60 355.15,350.85 351.40,348.60 349.15,344.85 348.40,339.60"/>
    </edge>
    <edge id=":J01_8" function="internal">
        <lane id=":J01_8_0" index="0" speed="13.89" length="20.80" shape="354.80,339.60 354.80,360.40"/>
    </edge>
    <edge id=":J01_9" function="internal">
        <lane id=":J01_9_0" index="0" speed="10.10" length="5.43" shape="354.80,339.60 353.47,344.86"/>
    </edge>
    <edge id=":J01_10" function="internal">
        <lane id=":J01_10_0" index="0" speed="8.00" length="14.19" shape="351.60,339.60 352.15,343.45 353.80,346.20 356.55,347.85 360.40,348.40"/>
    </edge>
    <edge id=":J01_11" function="internal">
        <lane id=":J01_11_0" index="0" speed="13.89" length="20.80" shape="351.60,339.60 351.60,360.40"/>
    </edge>
    <edge id=":J01_17" function="internal">
        <lane id=":J01_17_0" index="0" speed="10.10" length="17.79" shape="353.47,344.86 353.43,345.00 349.89,349.89 345.00,353.43 339.60,354.80"/>
    </edge>
    <edge id=":J01_12" function="internal">
        <lane id=":J01_12_0" index="0" speed="6.51" length="9.03" shape="339.60,345.20 342.05,344.85 343.80,343.80 344.85,342.05 345.20,339.60"/>
    </edge>
    <edge id=":J01_13" function="internal">
        <lane id=":J01_13_0" index="0" speed="13.89" length="20.80" shape="339.60,345.20 360.40,345.20"/>
        <lane id=":J01_13_1" index="1" speed="13.89" length="20.80" shape="339.60,348.40 360.40,348.40"/>
    </edge>
    <edge id=":J01_15" function="internal">
        <lane id=":J01_15_0" index="0" speed="9.26" length="19.35" shape="339.60,348.40 344.85,349.15 348.60,351.40 350.85,355.15 351.60,360.40"/>
    </edge>
    <edge id=":J10_0" function="internal">
        <lane id=":J10_0_0" index="0" speed="13.89" length="20.80" shape="145.20,160.40 145.20,139.60"/>
    </edge>
    <edge id=":J10_1" function="internal">
        <lane id=":J10_1_0" index="0" speed="10.10" length="5.43" shape="145.20,160.40 146.53,155.14"/>
    </edge>
    <edge id=":J10_2" function="internal">
        <lane id=":J10_2_0" index="0" speed="8.00" length="14.19" shape="148.40,160.40 147.85,156.55 146.20,153.80 143.45,152.15 139.60,151.60"/>
    </edge>
    <edge id=":J10_3" function="internal">
        <lane id=":J10_3_0" index="0" speed="13.89" length="20.80" shape="148.40,160.40 148.40,139.60"/>
    </edge>
    <edge id=":J10_16" function="internal">
        <lane id=":J10_16_0" index="0" speed="10.10" length="17.79" shape="146.53,155.14 146.57,155.00 150.11,150.11 155.00,146.57 160.40,145.20"/>
    </edge>
    <edge id=":J10_4" function="internal">
        <lane id=":J10_4_0" index="0" speed="6.51" length="9.03" shape="160.40,154.80 157.95,155.15 156.20,156.20 155.15,157.95 154.80,160.40"/>
    </edge>
    <edge id=":J10_5" function="internal">
        <lane id=":J10_5_0" index="0" speed="13.89" length="20.80" shape="160.40,154.80 139.60,154.80"/>
        <lane id=":J10_5_1" index="1" speed="13.89" length="20.80" shape="160.40,151.60 139.60,151.60"/>
    </edge>
    <edge id=":J10_7" function="internal">
        <lane id=":J10_7_0" index="0" speed="9.26" length="19.35" shape="160.40,151.60 155.15,150.85 151.40,148.60 149.15,144.85 148.40,139.60"/>
    </edge>
    <edge id=":J10_8" function="internal">
        <lane id=":J10_8_0" index="0" speed="13.89" length="20.80" shape="154.80,139.60 154.80,160.40"/>
    </edge>
    <edge id=":J10_9" function="internal">
        <lane id=":J10_9_0" index="0" speed="10.10" length="5.43" shape="154.80,139.60 153.47,144.86"/>
    </edge>
    <edge id=":J10_10" function="internal">
        <lane id=":J10_10_0" index="0" speed="8.00" length="14.19" shape="151.60,139.60 152.15,143.45 153.80,146.20 156.55,147.85 160.40,148.40"/>
    </edge>
    <edge id=":J10_11" function="internal">
        <lane id=":J10_11_0" index="0" speed="13.89" length="20.80" shape="151.60,139.60 151.60,160.40"/>
    </edge>
    <edge id=":J10_17" function="internal">
        <lane id=":J10_17_0" index="0" speed="10.10" length="17.79" shape="153.47,144.86 153.43,145.00 149.89,149.89 145.00,153.43 139.60,154.80"/>
    </edge>
    <edge id=":J10_12" function="internal">
        <lane id=":J10_12_0" index="0" speed="6.51" length="9.03" shape="139.60,145.20 142.05,144.85 143.80,143.80 144.85,142.05 145.20,139.60"/>
    </edge>
    <edge id=":J10_13" function="internal">
        <lane id=":J10_13_0" index="0" speed="13.89" length="20.80" shape="139.60,145.20 160.40,145.20"/>
        <lane id=":J10_13_1" index="1" speed="13.89" length="20.80" shape="139.60,148.40 160.40,148.40"/>
    </edge>
    <edge id=":J10_15" function="internal">
        <lane id=":J10_15_0" index="0" speed="9.26" length="19.35" shape="139.60,148.40 144.85,149.15 148.60,151.40 150.85,155.15 151.60,160.40"/>
    </edge>
    <edge id=":J11_0" function="internal">
        <lane id=":J11_0_0" index="0" speed="13.89" length="20.80" shape="345.20,160.40 345.20,139.60"/>
    </edge>
    <edge id=":J11_1" function="internal">
        <lane id=":J11_1_0" index="0" speed="10.10" length="5.43" shape="345.20,160.40 346.53,155.14"/>
    </edge>
    <edge id=":J11_2" function="internal">
        <lane id=":J11_2_0" index="0" speed="8.00" length="14.19" shape="348.40,160.40 347.85,156.55 346.20,153.80 343.45,152.15 339.60,151.60"/>
    </edge>
    <edge id=":J11_3" function="internal">
        <lane id=":J11_3_0" index="0" speed="13.89" length="20.80" shape="348.40,160.40 348.40,139.60"/>
    </edge>
    <edge id=":J11_16" function="internal">
        <lane id=":J11_16_0" index="0" speed="10.10" length="17.79" shape="346.53,155.14 346.57,155.00 350.11,150.11 355.00,146.57 360.40,145.20"/>
    </edge>
    <edge id=":J11_4" function="internal">
        <lane id=":J11_4_0" index="0" speed="6.51" length="9.03" shape="360.40,154.80 357.95,155.15 356.20,156.20 355.15,157.95 354.80,160.40"/>
    </edge>
    <edge id=":J11_5" function="internal">
        <lane id=":J11_5_0" index="0" speed="13.89" length="20.80" shape="360.40,154.80 339.60,154.80"/>
        <lane id=":J11_5_1" index="1" speed="13.89" length="20.80" shape="360.40,151.60 339.60,151.60"/>
    </edge>
    <edge id=":J11_7" function="internal">
        <lane id=":J11_7_0" index="0" speed="9.26" length="19.35" shape="360.40,151.60 355.15,150.85 351.40,148.60 349.15,144.85 348.40,139.60"/>
    </edge>
    <edge id=":J11_8" function="internal">
        <lane id=":J11_8_0" index="0" speed="13.89" length="20.80" shape="354.80,139.60 354.80,160.40"/>
    </edge>
    <edge id=":J11_9" function="internal">
        <lane id=":J11_9_0" index="0" speed="10.10" length="5.43" shape="354.80,139.60 353.47,144.86"/>
    </edge>
    <edge id=":J11_10" function="internal">
        <lane id=":J11_10_0" index="0" speed="8.00" length="14.19" shape="351.60,139.60 352.15,143.45 353.80,146.20 356.55,147.85 360.40,148.40"/>
    </edge>
    <edge id=":J11_11" function="internal">
        <lane id=":J11_11_0" index="0" speed="13.89" length="20.80" shape="351.60,139.60 351.60,160.40"/>
    </edge>
    <edge id=":J11_17" function="internal">
        <lane id=":J11_17_0" index="0" speed="10.10" length="17.79" shape="353.47,144.86 353.43,145.00 349.89,149.89 345.00,153.43 339.60,154.80"/>
    </edge>
    <edge id=":J11_12" function="internal">
        <lane id=":J11_12_0" index="0" speed="6.51" length="9.03" shape="339.60,145.20 342.05,144.85 343.80,143.80 344.85,142.05 345.20,139.60"/>
    </edge>
    <edge id=":J11_13" function="internal">
        <lane id=":J11_13_0" index="0" speed="13.89" length="20.80" shape="339.60,145.20 360.40,145.20"/>
        <lane id=":J11_13_1" index="1" speed="13.89" length="20.80" shape="339.60,148.40 360.40,148.40"/>
    </edge>
    <edge id=":J11_15" function="internal">
        <lane id=":J11_15_0" index="0" speed="9.26" length="19.35" shape="339.60,148.40 344.85,149.15 348.60,151.40 350.85,155.15 351.60,160.40"/>
    </edge>
    <edge id=":N0_0" function="internal">
        <lane id=":N0_0_0" index="0" speed="3.65" length="4.67" shape="151.60,500.00 150.80,501.20 150.00,501.60 149.20,501.20 148.40,500.00"/>
    </edge>
    <edge id=":N1_0" function="internal">
        <lane id=":N1_0_0" index="0" speed="3.65" length="4.67" shape="351.60,500.00 350.80,501.20 350.00,501.60 349.20,501.20 348.40,500.00"/>
    </edge>
    <edge id=":S0_0" function="internal">
        <lane id=":S0_0_0" index="0" speed="3.65" length="4.67" shape="148.40,0.00 149.20,-1.20 150.00,-1.60 150.80,-1.20 151.60,0.00"/>
    </edge>
    <edge id=":S1_0" function="internal">
        <lane id=":S1_0_0" index="0" speed="3.65" length="4.67" shape="348.40,0.00 349.20,-1.20 350.00,-1.60 350.80,-1.20 351.60,0.00"/>
    </edge>
    <edge id=":W0_0" function="internal">
        <lane id=":W0_0_0" index="0" speed="3.65" length="4.67" shape="0.00,351.60 -1.20,350.80 -1.60,350.00 -1.20,349.20 0.00,348.40"/>
    </edge>
    <edge id=":W1_0" function="internal">
        <lane id=":W1_0_0" index="0" speed="3.65" length="4.67" shape="0.00,151.60 -1.20,150.80 -1.60,150.00 -1.20,149.20 0.00,148.40"/>
    </edge>

    <edge id="E0_J01" from="E0" to="J01" priority="1">
        <lane id="E0_J01_0" index="0" speed="13.89" length="139.60" shape="500.00,354.80 360.40,354.80"/>
        <lane id="E0_J01_1" index="1" speed="13.89" length="139.60" shape="500.00,351.60 360.40,351.60"/>
    </edge>
    <edge id="E1_J11" from="E1" to="J11" priority="1">
        <lane id="E1_J11_0" index="0" speed="13.89" length="139.60" shape="500.00,154.80 360.40,154.80"/>
        <lane id="E1_J11_1" index="1" speed="13.89" length="139.60" shape="500.00,151.60 360.40,151.60"/>
    </edge>
    <edge id="J00_J01" from="J00" to="J01" priority="2">
        <lane id="J00_J01_0" index="0" speed="13.89" length="179.20" shape="160.40,345.20 339.60,345.20"/>
        <lane id="J00_J01_1" index="1" speed="13.89" length="179.20" shape="160.40,348.40 339.60,348.40"/>
    </edge>
    <edge id="J00_J10" from="J00" to="J10" priority="2">
        <lane id="J00_J10_0" index="0" speed="13.89" length="179.20" shape="145.20,339.60 145.20,160.40"/>
        <lane id="J00_J10_1" index="1" speed="13.89" length="179.20" shape="148.40,339.60 148.40,160.40"/>
    </edge>
    <edge id="J00_N0" from="J00" to="N0" priority="1">
        <lane id="J00_N0_0" index="0" speed="13.89" length="139.60" shape="154.80,360.40 154.80,500.00"/>
        <lane id="J00_N0_1" index="1" speed="13.89" length="139.60" shape="151.60,360.40 151.60,500.00"/>
    </edge>
    <edge id="J00_W0" from="J00" to="W0" priority="1">
        <lane id="J00_W0_0" index="0" speed="13.89" length="139.60" shape="139.60,354.80 0.00,354.80"/>
        <lane id="J00_W0_1" index="1" speed="13.89" length="139.60" shape="139.60,351.60 0.00,351.60"/>
    </edge>
    <edge id="J01_E0" from="J01" to="E0" priority="1">
        <lane id="J01_E0_0" index="0" speed="13.89" length="139.60" shape="360.40,345.20 500.00,345.20"/>
        <lane id="J01_E0_1" index="1" speed="13.89" length="139.60" shape="360.40,348.40 500.00,348.40"/>
    </edge>
    <edge id="J01_J00" from="J01" to="J00" priority="2">
        <lane id="J01_J00_0" index="0" speed="13.89" length="179.20" shape="339.60,354.80 160.40,354.80"/>
        <lane id="J01_J00_1" index="1" speed="13.89" length="179.20" shape="339.60,351.60 160.40,351.60"/>
    </edge>
    <edge id="J01_J11" from="J01" to="J11" priority="2">
        <lane id="J01_J11_0" index="0" speed="13.89" length="179.20" shape="345.20,339.60 345.20,160.40"/>
        <lane id="J01_J11_1" index="1" speed="13.89" length="179.20" shape="348.40,339.60 348.40,160.40"/>
    </edge>
    <edge id="J01_N1" from="J01" to="N1" priority="1">
        <lane id="J01_N1_0" index="0" speed="13.89" length="139.60" shape="354.80,360.40 354.80,500.00"/>
        <lane id="J01_N1_1" index="1" speed="13.89" length="139.60" shape="351.60,360.40 351.60,500.00"/>
    </edge>
    <edge id="J10_J00" from="J10" to="J00" priority="2">
        <lane id="J10_J00_0" index="0" speed="13.89" length="179.20" shape="154.80,160.40 154.80,339.60"/>
        <lane id="J10_J00_1" index="1" speed="13.89" length="179.20" shape="151.60,160.40 151.60,339.60"/>
    </edge>
    <edge id="J10_J11" from="J10" to="J11" priority="2">
        <lane id="J10_J11_0" index="0" speed="13.89" length="179.20" shape="160.40,145.20 339.60,145.20"/>
        <lane id="J10_J11_1" index="1" speed="13.89" length="179.20" shape="160.40,148.40 339.60,148.40"/>
    </edge>
    <edge id="J10_S0" from="J10" to="S0" priority="1">
        <lane id="J10_S0_0" index="0" speed="13.89" length="139.60" shape="145.20,139.60 145.20,0.00"/>
        <lane id="J10_S0_1" index="1" speed="13.89" length="139.60" shape="148.40,139.60 148.40,0.00"/>
    </edge>
    <edge id="J10_W1" from="J10" to="W1" priority="1">
        <lane id="J10_W1_0" index="0" speed="13.89" length="139.60" shape="139.60,154.80 0.00,154.80"/>
        <lane id="J10_W1_1" index="1" speed="13.89" length="139.60" shape="139.60,151.60 0.00,151.60"/>
    </edge>
    <edge id="J11_E1" from="J11" to="E1" priority="1">
        <lane id="J11_E1_0" index="0" speed="13.89" length="139.60" shape="360.40,145.20 500.00,145.20"/>
        <lane id="J11_E1_1" index="1" speed="13.89" length="139.60" shape="360.40,148.40 500.00,148.40"/>
    </edge>
    <edge id="J11_J01" from="J11" to="J01" priority="2">
        <lane id="J11_J01_0" index="0" speed="13.89" length="179.20" shape="354.80,160.40 354.80,339.60"/>
        <lane id="J11_J01_1" index="1" speed="13.89" length="179.20" shape="351.60,160.40 351.60,339.60"/>
    </edge>
    <edge id="J11_J10" from="J11" to="J10" priority="2">
        <lane id="J11_J10_0" index="0" speed="13.89" length="179.20" shape="339.60,154.80 160.40,154.80"/>
        <lane id="J11_J10_1" index="1" speed="13.89" length="179.20" shape="339.60,151.60 160.40,151.60"/>
    </edge>
    <edge id="J11_S1" from="J11" to="S1" priority="1">
        <lane id="J11_S1_0" index="0" speed="13.89" length="139.60" shape="345.20,139.60 345.20,0.00"/>
        <lane id="J11_S1_1" index="1" speed="13.89" length="139.60" shape="348.40,139.60 348.40,0.00"/>
    </edge>
    <edge id="N0_J00" from="N0" to="J00" priority="1">
        <lane id="N0_J00_0" index="0" speed="13.89" length="139.60" shape="145.20,500.00 145.20,360.40"/>
        <lane id="N0_J00_1" index="1" speed="13.89" length="139.60" shape="148.40,500.00 148.40,360.40"/>
    </edge>
    <edge id="N1_J01" from="N1" to="J01" priority="1">
        <lane id="N1_J01_0" index="0" speed="13.89" length="139.60" shape="345.20,500.00 345.20,360.40"/>
        <lane id="N1_J01_1" index="1" speed="13.89" length="139.60" shape="348.40,500.00 348.40,360.40"/>
    </edge>
    <edge id="S0_J10" from="S0" to="J10" priority="1">
        <lane id="S0_J10_0" index="0" speed="13.89" length="139.60" shape="154.80,0.00 154.80,139.60"/>
        <lane id="S0_J10_1" index="1" speed="13.89" length="139.60" shape="151.60,0.00 151.60,139.60"/>
    </edge>
    <edge id="S1_J11" from="S1" to="J11" priority="1">
        <lane id="S1_J11_0" index="0" speed="13.89" length="139.60" shape="354.80,0.00 354.80,139.60"/>
        <lane id="S1_J11_1" index="1" speed="13.89" length="139.60" shape="351.60,0.00 351.60,139.60"/>
    </edge>
    <edge id="W0_J00" from="W0" to="J00" priority="1">
        <lane id="W0_J00_0" index="0" speed="13.89" length="139.60" shape="0.00,345.20 139.60,345.20"/>
        <lane id="W0_J00_1" index="1" speed="13.89" length="139.60" shape="0.00,348.40 139.60,348.40"/>
    </edge>
    <edge id="W1_J10" from="W1" to="J10" priority="1">
        <lane id="W1_J10_0" index="0" speed="13.89" length="139.60" shape="0.00,145.20 139.60,145.20"/>
        <lane id="W1_J10_1" index="1" speed="13.89" length="139.60" shape="0.00,148.40 139.60,148.40"/>
    </edge>

    <tlLogic id="J00" type="static" programID="0" offset="0">
        <phase duration="30" state="GGrrGGrrGGrrGGrr"/>
        <phase duration="10" state="yyrryyrryyrryyrr"/>
        <phase duration="30" state="rrGGrrGGrrGGrrGG"/>
        <phase duration="10" state="rryyrryyrryyrryy"/>
    </tlLogic>
    <tlLogic id="J01" type="static" programID="0" offset="0">
        <phase duration="30" state="GGrrGGrrGGrrGGrr"/>
        <phase duration="10" state="yyrryyrryyrryyrr"/>
        <phase duration="30" state="rrGGrrGGrrGGrrGG"/>
        <phase duration="10" state="rryyrryyrryyrryy"/>
    </tlLogic>
    <tlLogic id="J10" type="static" programID="0" offset="0">
        <phase duration="30" state="GGrrGGrrGGrrGGrr"/>
        <phase duration="10" state="yyrryyrryyrryyrr"/>
        <phase duration="30" state="rrGGrrGGrrGGrrGG"/>
        <phase duration="10" state="rryyrryyrryyrryy"/>
    </tlLogic>
    <tlLogic id="J11" type="static" programID="0" offset="0">
        <phase duration="30" state="GGrrGGrrGGrrGGrr"/>
        <phase duration="10" state="yyrryyrryyrryyrr"/>
        <phase duration="30" state="rrGGrrGGrrGGrrGG"/>
        <phase duration="10" state="rryyrryyrryyrryy"/>
    </tlLogic>

    <junction id="E0" type="priority" x="500.00" y="350.00" incLanes="J01_E0_0 J01_E0_1" intLanes=":E0_0_0" shape="500.00,350.00 500.00,343.60 500.00,350.00">
        <request index="0" response="0" foes="0" cont="0"/>
    </junction>
    <junction id="E1" type="priority" x="500.00" y="150.00" incLanes="J11_E1_0 J11_E1_1" intLanes=":E1_0_0" shape="500.00,150.00 500.00,143.60 500.00,150.00">
        <request index="0" response="0" foes="0" cont="0"/>
    </junction>
    <junction id="J00" type="traffic_light" x="150.00" y="350.00" incLanes="N0_J00_0 N0_J00_1 J01_J00_0 J01_J00_1 J10_J00_0 J10_J00_1 W0_J00_0 W0_J00_1" intLanes=":J00_0_0 :J00_1_0 :J00_2_0 :J00_3_0 :J00_4_0 :J00_5_0 :J00_5_1 :J00_7_0 :J00_8_0 :J00_9_0 :J00_10_0 :J00_11_0 :J00_12_0 :J00_13_0 :J00_13_1 :J00_15_0" shape="143.60,360.40 156.40,360.40 156.84,358.18 157.40,357.40 158.18,356.84 159.18,356.51 160.40,356.40 160.40,343.60 158.18,343.16 157.40,342.60 156.84,341.82 156.51,340.82 156.40,339.60 143.60,339.60 143.16,341.82 142.60,342.60 141.82,343.16 140.82,343.49 139.60,343.60 139.60,356.40 141.82,356.84 142.60,357.40 143.16,358.18 143.49,359.18">
        <request index="0"  response="1111000011100000" foes="1111001011100100" cont="0"/>
        <request index="1"  response="1110110111101000" foes="1110111111101100" cont="0"/>
        <request index="2"  response="0000000001100011" foes="0000001001100011" cont="0"/>
        <request index="3"  response="1111000011100000" foes="1111001011100010" cont="0"/>
        <request index="4"  response="0000000000000000" foes="0000100100000000" cont="0"/>
        <request index="5"  response="0000000000000000" foes="1000101100001111" cont="0"/>
        <request index="6"  response="0000000000000000" foes="1000101100001111" cont="0"/>
        <request index="7"  response="0110000000000000" foes="0110101100001011" cont="0"/>
        <request index="8"  response="1110000011110000" foes="1110010011110010" cont="0"/>
        <request index="9"  response="1110100011101111" foes="1110110011101111" cont="0"/>
        <request index="10" response="0110001100000000" foes="0110001100000010" cont="0"/>
        <request index="11" response="1110000011110000" foes="1110001011110010" cont="0"/>
        <request index="12" response="0000000000000000" foes="0000000000001001" cont="0"/>
        <request index="13" response="0000000000000000" foes="0000111110001011" cont="0"/>
        <request index="14" response="0000000000000000" foes="0000111110001011" cont="0"/>
        <request index="15" response="0000000001100000" foes="0000101101101011" cont="0"/>
    </junction>
    <junction id="J01" type="traffic_light" x="350.00" y="350.00" incLanes="N1_J01_0 N1_J01_1 E0_J01_0 E0_J01_1 J11_J01_0 J11_J01_1 J00_J01_0 J00_J01_1" intLanes=":J01_0_0 :J01_16_0 :J01_2_0 :J01_3_0 :J01_4_0 :J01_5_0 :J01_5_1 :J01_7_0 :J01_8_0 :J01_17_0 :J01_10_0 :J01_11_0 :J01_12_0 :J01_13_0 :J01_13_1 :J01_15_0" shape="343.60,360.40 356.40,360.40 356.84,358.18 357.40,357.40 358.18,356.84 359.18,356.51 360.40,356.40 360.40,343.60 358.18,343.16 357.40,342.60 356.84,341.82 356.51,340.82 356.40,339.60 343.60,339.60 343.16,341.82 342.60,342.60 341.82,343.16 340.82,343.49 339.60,343.60 339.60,356.40 341.82,356.84 342.60,357.40 343.16,358.18 343.49,359.18">
        <request index="0"  response="0000001000000000" foes="1111001011100100" cont="0"/>
        <request index="1"  response="0000110100001000" foes="1110111111101100" cont="1"/>
        <request index="2"  response="0000001000000011" foes="0000001001100011" cont="0"/>
        <request index="3"  response="0000001000000000" foes="1111001011100010" cont="0"/>
        <request index="4"  response="0000100100000000" foes="0000100100000000" cont="0"/>
        <request index="5"  response="0000101100001111" foes="1000101100001111" cont="0"/>
        <request index="6"  response="0000101100001111" foes="1000101100001111" cont="0"/>
        <request index="7"  response="0110101100001011" foes="0110101100001011" cont="0"/>
        <request index="8"  response="0000000000000010" foes="1110010011110010" cont="0"/>
        <request index="9"  response="0000100000001111" foes="1110110011101111" cont="1"/>
        <request index="10" response="0000001100000010" foes="0110001100000010" cont="0"/>
        <request index="11" response="0000000000000010" foes="1110001011110010" cont="0"/>
        <request index="12" response="0000000000001001" foes="0000000000001001" cont="0"/>
        <request index="13" response="0000111100001011" foes="0000111110001011" cont="0"/>
        <request index="14" response="0000111100001011" foes="0000111110001011" cont="0"/>
        <request index="15" response="0000101101101011" foes="0000101101101011" cont="0"/>
    </junction>
    <junction id="J10" type="traffic_light" x="150.00" y="150.00" incLanes="J00_J10_0 J00_J10_1 J11_J10_0 J11_J10_1 S0_J10_0 S0_J10_1 W1_J10_0 W1_J10_1" intLanes=":J10_0_0 :J10_16_0 :J10_2_0 :J10_3_0 :J10_4_0 :J10_5_0 :J10_5_1 :J10_7_0 :J10_8_0 :J10_17_0 :J10_10_0 :J10_11_0 :J10_12_0 :J10_13_0 :J10_13_1 :J10_15_0" shape="143.60,160.40 156.40,160.40 156.84,158.18 157.40,157.40 158.18,156.84 159.18,156.51 160.40,156.40 160.40,143.60 158.18,143.16 157.40,142.60 156.84,141.82 156.51,140.82 156.40,139.60 143.60,139.60 143.16,141.82 142.60,142.60 141.82,143.16 140.82,143.49 139.60,143.60 139.60,156.40 141.82,156.84 142.60,157.40 143.16,158.18 143.49,159.18">
        <request index="0"  response="0000001000000000" foes="1111001011100100" cont="0"/>
        <request index="1"  response="0000111100001000" foes="1110111111101100" cont="1"/>
        <request index="2"  response="0000001000000011" foes="0000001001100011" cont="0"/>
        <request index="3"  response="0000001000000000" foes="1111001011100010" cont="0"/>
        <request index="4"  response="0000100100000000" foes="0000100100000000" cont="0"/>
        <request index="5"  response="0000101100001111" foes="1000101100001111" cont="0"/>
        <request index="6"  response="0000101100001111" foes="1000101100001111" cont="0"/>
        <request index="7"  response="0110101100001011" foes="0110101100001011" cont="0"/>
        <request index="8"  response="0000000000000010" foes="1110010011110010" cont="0"/>
        <request index="9"  response="0000100000001101" foes="1110110011101111" cont="1"/>
        <request index="10" response="0000001100000010" foes="0110001100000010" cont="0"/>
        <request index="11" response="0000000000000010" foes="1110001011110010" cont="0"/>
        <request index="12" response="0000000000001001" foes="0000000000001001" cont="0"/>
        <request index="13" response="0000111100001011" foes="0000111110001011" cont="0"/>
        <request index="14" response="0000111100001011" foes="0000111110001011" cont="0"/>
        <request index="15" response="0000101101101011" foes="0000101101101011" cont="0"/>
    </junction>