<?xml version="1.0" encoding="UTF-8"?>

<!-- generated on 2026-07-20T21:11:31.947124+07:00 by Eclipse SUMO netconvert 1.27.1
<netconvertConfiguration xmlns:xsi="http://www.w3.org/2001/XMLSchema-instance" xsi:noNamespaceSchemaLocation="http://sumo.dlr.de/xsd/netconvertConfiguration.xsd">

    <input>
        <node-files value="D:\projects\helloworld\Traffic Simulation\sumo_config\nodes.nod.xml"/>
        <edge-files value="D:\projects\helloworld\Traffic Simulation\sumo_config\edges.edg.xml"/>
        <connection-files value="D:\projects\helloworld\Traffic Simulation\sumo_config\connections.con.xml"/>
        <tllogic-files value="D:\projects\helloworld\Traffic Simulation\sumo_config\tll.tll.xml"/>
    </input>

    <output>
        <output-file value="D:\projects\helloworld\Traffic Simulation\sumo_config\intersection.net.xml"/>
    </output>

    <report>
        <no-warnings value="true"/>
    </report>

</netconvertConfiguration>
-->

<net version="1.20" junctionCornerDetail="5" limitTurnSpeed="5.50" xmlns:xsi="http://www.w3.org/2001/XMLSchema-instance" xsi:noNamespaceSchemaLocation="http://sumo.dlr.de/xsd/net_file.xsd">

    <location netOffset="150.00,150.00" convBoundary="0.00,0.00,300.00,300.00" origBoundary="-150.00,-150.00,150.00,150.00" projParameter="!"/>

    <edge id=":E_0" function="internal">
        <lane id=":E_0_0" index="0" speed="3.65" length="4.67" shape="300.00,148.40 301.20,149.20 301.60,150.00 301.20,150.80 300.00,151.60"/>
    </edge>
    <edge id=":J0_0" function="internal">
        <lane id=":J0_0_0" index="0" speed="13.89" length="20.80" shape="145.20,160.40 145.20,139.60"/>
    </edge>
    <edge id=":J0_1" function="internal">
        <lane id=":J0_1_0" index="0" speed="10.10" length="5.43" shape="145.20,160.40 146.53,155.14"/>
    </edge>
    <edge id=":J0_2" function="internal">
        <lane id=":J0_2_0" index="0" speed="8.00" length="14.19" shape="148.40,160.40 147.85,156.55 146.20,153.80 143.45,152.15 139.60,151.60"/>
    </edge>
    <edge id=":J0_3" function="internal">
        <lane id=":J0_3_0" index="0" speed="13.89" length="20.80" shape="148.40,160.40 148.40,139.60"/>
    </edge>
    <edge id=":J0_16" function="internal">
        <lane id=":J0_16_0" index="0" speed="10.10" length="17.79" shape="146.53,155.14 146.57,155.00 150.11,150.11 155.00,146.57 160.40,145.20"/>
    </edge>
    <edge id=":J0_4" function="internal">
        <lane id=":J0_4_0" index="0" speed="6.51" length="9.03" shape="160.40,154.80 157.95,155.15 156.20,156.20 155.15,157.95 154.80,160.40"/>
    </edge>
    <edge id=":J0_5" function="internal">
        <lane id=":J0_5_0" index="0" speed="13.89" length="20.80" shape="160.40,154.80 139.60,154.80"/>
        <lane id=":J0_5_1" index="1" speed="13.89" length="20.80" shape="160.40,151.60 139.60,151.60"/>
    </edge>
    <edge id=":J0_7" function="internal">
        <lane id=":J0_7_0" index="0" speed="9.26" length="19.35" shape="160.40,151.60 155.15,150.85 151.40,148.60 149.15,144.85 148.40,139.60"/>
    </edge>
    <edge id=":J0_8" function="internal">
        <lane id=":J0_8_0" index="0" speed="13.89" length="20.80" shape="154.80,139.60 154.80,160.40"/>
    </edge>
    <edge id=":J0_9" function="internal">
        <lane id=":J0_9_0" index="0" speed="10.10" length="5.43" shape="154.80,139.60 153.47,144.86"/>
    </edge>
    <edge id=":J0_10" function="internal">
        <lane id=":J0_10_0" index="0" speed="8.00" length="14.19" shape="151.60,139.60 152.15,143.45 153.80,146.20 156.55,147.85 160.40,148.40"/>
    </edge>
    <edge id=":J0_11" function="internal">
        <lane id=":J0_11_0" index="0" speed="13.89" length="20.80" shape="151.60,139.60 151.60,160.40"/>
    </edge>
    <edge id=":J0_17" function="internal">
        <lane id=":J0_17_0" index="0" speed="10.10" length="17.79" shape="153.47,144.86 153.43,145.00 149.89,149.89 145.00,153.43 139.60,154.80"/>
    </edge>
    <edge id=":J0_12" function="internal">
        <lane id=":J0_12_0" index="0" speed="6.51" length="9.03" shape="139.60,145.20 142.05,144.85 143.80,143.80 144.85,142.05 145.20,139.60"/>
    </edge>
    <edge id=":J0_13" function="internal">
        <lane id=":J0_13_0" index="0" speed="13.89" length="20.80" shape="139.60,145.20 160.40,145.20"/>
        <lane id=":J0_13_1" index="1" speed="13.89" length="20.80" shape="139.60,148.40 160.40,148.40"/>
    </edge>
    <edge id=":J0_15" function="internal">
        <lane id=":J0_15_0" index="0" speed="9.26" length="19.35" shape="139.60,148.40 144.85,149.15 148.60,151.40 150.85,155.15 151.60,160.40"/>
    </edge>
    <edge id=":N_0" function="internal">
        <lane id=":N_0_0" index="0" speed="3.65" length="4.67" shape="151.60,300.00 150.80,301.20 150.00,301.60 149.20,301.20 148.40,300.00"/>
    </edge>
    <edge id=":S_0" function="internal">
        <lane id=":S_0_0" index="0" speed="3.65" length="4.67" shape="148.40,0.00 149.20,-1.20 150.00,-1.60 150.80,-1.20 151.60,0.00"/>
    </edge>
    <edge id=":W_0" function="internal">
        <lane id=":W_0_0" index="0" speed="3.65" length="4.67" shape="0.00,151.60 -1.20,150.80 -1.60,150.00 -1.20,149.20 0.00,148.40"/>
    </edge>

    <edge id="E2J0" from="E" to="J0" priority="1">
        <lane id="E2J0_0" index="0" speed="13.89" length="139.60" shape="300.00,154.80 160.40,154.80"/>
        <lane id="E2J0_1" index="1" speed="13.89" length="139.60" shape="300.00,151.60 160.40,151.60"/>
    </edge>
    <edge id="J02E" from="J0" to="E" priority="1">
        <lane id="J02E_0" index="0" speed="13.89" length="139.60" shape="160.40,145.20 300.00,145.20"/>
        <lane id="J02E_1" index="1" speed="13.89" length="139.60" shape="160.40,148.40 300.00,148.40"/>
    </edge>
    <edge id="J02N" from="J0" to="N" priority="1">
        <lane id="J02N_0" index="0" speed="13.89" length="139.60" shape="154.80,160.40 154.80,300.00"/>
        <lane id="J02N_1" index="1" speed="13.89" length="139.60" shape="151.60,160.40 151.60,300.00"/>
    </edge>
    <edge id="J02S" from="J0" to="S" priority="1">
        <lane id="J02S_0" index="0" speed="13.89" length="139.60" shape="145.20,139.60 145.20,0.00"/>
        <lane id="J02S_1" index="1" speed="13.89" length="139.60" shape="148.40,139.60 148.40,0.00"/>
    </edge>
    <edge id="J02W" from="J0" to="W" priority="1">
        <lane id="J02W_0" index="0" speed="13.89" length="139.60" shape="139.60,154.80 0.00,154.80"/>
        <lane id="J02W_1" index="1" speed="13.89" length="139.60" shape="139.60,151.60 0.00,151.60"/>
    </edge>
    <edge id="N2J0" from="N" to="J0" priority="1">
        <lane id="N2J0_0" index="0" speed="13.89" length="139.60" shape="145.20,300.00 145.20,160.40"/>
        <lane id="N2J0_1" index="1" speed="13.89" length="139.60" shape="148.40,300.00 148.40,160.40"/>
    </edge>
    <edge id="S2J0" from="S" to="J0" priority="1">
        <lane id="S2J0_0" index="0" speed="13.89" length="139.60" shape="154.80,0.00 154.80,139.60"/>
        <lane id="S2J0_1" index="1" speed="13.89" length="139.60" shape="151.60,0.00 151.60,139.60"/>
    </edge>
    <edge id="W2J0" from="W" to="J0" priority="1">
        <lane id="W2J0_0" index="0" speed="13.89" length="139.60" shape="0.00,145.20 139.60,145.20"/>
        <lane id="W2J0_1" index="1" speed="13.89" length="139.60" shape="0.00,148.40 139.60,148.40"/>
    </edge>

    <tlLogic id="J0" type="static" programID="0" offset="0">
        <phase duration="30" state="GGrrGGrrGGrrGGrr"/>
        <phase duration="10" state="yyrryyrryyrryyrr"/>
        <phase duration="30" state="rrGGrrGGrrGGrrGG"/>
        <phase duration="10" state="rryyrryyrryyrryy"/>
    </tlLogic>

    <junction id="E" type="priority" x="300.00" y="150.00" incLanes="J02E_0 J02E_1" intLanes=":E_0_0" shape="300.00,150.00 300.00,143.60 300.00,150.00">
        <request index="0" response="0" foes="0" cont="0"/>
    </junction>
    <junction id="J0" type="traffic_light" x="150.00" y="150.00" incLanes="N2J0_0 N2J0_1 E2J0_0 E2J0_1 S2J0_0 S2J0_1 W2J0_0 W2J0_1" intLanes=":J0_0_0 :J0_16_0 :J0_2_0 :J0_3_0 :J0_4_0 :J0_5_0 :J0_5_1 :J0_7_0 :J0_8_0 :J0_17_0 :J0_10_0 :J0_11_0 :J0_12_0 :J0_13_0 :J0_13_1 :J0_15_0" shape="143.60,160.40 156.40,160.40 156.84,158.18 157.40,157.40 158.18,156.84 159.18,156.51 160.40,156.40 160.40,143.60 158.18,143.16 157.40,142.60 156.84,141.82 156.51,140.82 156.40,139.60 143.60,139.60 143.16,141.82 142.60,142.60 141.82,143.16 140.82,143.49 139.60,143.60 139.60,156.40 141.82,156.84 142.60,157.40 143.16,158.18 143.49,159.18">
        <request index="0"  response="0000001000000000" foes="1111001011100100" cont="0"/>
        <request index="1"  response="0000111100001000" foes="1110111111101100" cont="1"/>
        <request index="2"  response="0000001000000011" foes="0000001001100011" cont="0"/>
        <request index="3"  response="0000001000000000" foes="1111001011100010" cont="0"/>
        <request index="4"  response="0000100100000000" foes="0000100100000000" cont="0"/>
        <request index="5"  response="0000101100001111" foes="1000101100001111" cont="0"/>
        <request index="6"  response="0000101100001111" foes="1000101100001111" cont="0"/>
        <request index="7"  response="0110101100001011" foes="0110101100001011" cont="0"/>
        <request index="8"  response="0000000000000010" foes="1110010011110010" cont="0"/>
        <request index="9"  response="0000100000001101" foes="1110110011101111" cont="1"/>
        <request index="10" response="0000001100000010" foes="0110001100000010" cont="0"/>
        <request index="11" response="0000000000000010" foes="1110001011110010" cont="0"/>
        <request index="12" response="0000000000001001" foes="0000000000001001" cont="0"/>
        <request index="13" response="0000111100001011" foes="0000111110001011" cont="0"/>
        <request index="14" response="0000111100001011" foes="0000111110001011" cont="0"/>
        <request index="15" response="0000101101101011" foes="0000101101101011" cont="0"/>
    </junction>
    <junction id="N" type="priority" x="150.00" y="300.00" incLanes="J02N_0 J02N_1" intLanes=":N_0_0" shape="150.00,300.00 156.40,300.00 150.00,300.00">
        <request index="0" response="0" foes="0" cont="0"/>
    </junction>
    <junction id="S" type="priority" x="150.00" y="0.00" incLanes="J02S_0 J02S_1" intLanes=":S_0_0" shape="150.00,0.00 143.60,0.00 150.00,0.00">
        <request index="0" response="0" foes="0" cont="0"/>
    </junction>
    <junction id="W" type="priority" x="0.00" y="150.00" incLanes="J02W_0 J02W_1" intLanes=":W_0_0" shape="0.00,150.00 0.00,156.40 0.00,150.00">
        <request index="0" response="0" foes="0" cont="0"/>
    </junction>

    <junction id=":J0_16_0" type="internal" x="146.53" y="155.14" incLanes=":J0_1_0 :J0_9_0" intLanes=":J0_17_0 :J0_3_0 :J0_5_0 :J0_5_1 :J0_7_0 :J0_8_0 :J0_9_0 :J0_10_0 :J0_11_0 :J0_13_0 :J0_13_1 :J0_15_0"/>
    <junction id=":J0_17_0" type="internal" x="153.47" y="144.86" incLanes=":J0_9_0" intLanes=":J0_0_0 :J0_1_0 :J0_2_0 :J0_3_0 :J0_5_0 :J0_5_1 :J0_7_0 :J0_11_0 :J0_13_0 :J0_13_1 :J0_15_0"/>

    <connection from="E2J0" to="J02N" fromLane="0" toLane="0" via=":J0_4_0" tl="J0" linkIndex="4" dir="r" state="o"/>
    <connection from="E2J0" to="J02W" fromLane="0" toLane="0" via=":J0_5_0" tl="J0" linkIndex="5" dir="s" state="o"/>
    <connection from="E2J0" to="J02W" fromLane="1" toLane="1" via=":J0_5_1" tl="J0" linkIndex="6" dir="s" state="o"/>
    <connection from="E2J0" to="J02S" fromLane="1" toLane="1" via=":J0_7_0" tl="J0" linkIndex="7" dir="l" state="o"/>
    <connection from="J02E" to="E2J0" fromLane="1" toLane="1" via=":E_0_0" dir="t" state="M"/>
    <connection from="J02N" to="N2J0" fromLane="1" toLane="1" via=":N_0_0" dir="t" state="M"/>
    <connection from="J02S" to="S2J0" fromLane="1" toLane="1" via=":S_0_0" dir="t" state="M"/>
    <connection from="J02W" to="W2J0" fromLane="1" toLane="1" via=":W_0_0" dir="t" state="M"/>
    <connection from="N2J0" to="J02S" fromLane="0" toLane="0" via=":J0_0_0" tl="J0" linkIndex="0" dir="s" state="O"/>
    <connection from="N2J0" to="J02E" fromLane="0" toLane="0" via=":J0_1_0" tl="J0" linkIndex="1" dir="l" state="o"/>
    <connection from="N2J0" to="J02W" fromLane="1" toLane="1" via=":J0_2_0" tl="J0" linkIndex="2" dir="r" state="o"/>
    <connection from="N2J0" to="J02S" fromLane="1" toLane="1" via=":J0_3_0" tl="J0" linkIndex="3" dir="s" state="O"/>
    <connection from="S2J0" to="J02N" fromLane="0" toLane="0" via=":J0_8_0" tl="J0" linkIndex="8" dir="s" state="O"/>
    <connection from="S2J0" to="J02W" fromLane="0" toLane="0" via=":J0_9_0" tl="J0" linkIndex="9" dir="l" state="o"/>
    <connection from="S2J0" to="J02E" fromLane="1" toLane="1" via=":J0_10_0" tl="J0" linkIndex="10" dir="r" state="o"/>
    <connection from="S2J0" to="J02N" fromLane="1" toLane="1" via=":J0_11_0" tl="J0" linkIndex="11" dir="s" state="O"/>
    <connection from="W2J0" to="J02S" fromLane="0" toLane="0" via=":J0_12_0" tl="J0" linkIndex="12" dir="r" state="o"/>
    <connection from="W2J0" to="J02E" fromLane="0" toLane="0" via=":J0_13_0" tl="J0" linkIndex="13" dir="s" state="o"/>
    <connection from="W2J0" to="J02E" fromLane="1" toLane="1" via=":J0_13_1" tl="J0" linkIndex="14" dir="s" state="o"/>
    <connection from="W2J0" to="J02N" fromLane="1" toLane="1" via=":J0_15_0" tl="J0" linkIndex="15" dir="l" state="o"/>

    <connection from=":E_0" to="E2J0" fromLane="0" toLane="1" dir="t" state="M"/>
    <connection from=":J0_0" to="J02S" fromLane="0" toLane="0" dir="s" state="M"/>
    <connection from=":J0_1" to="J02E" fromLane="0" toLane="0" via=":J0_16_0" dir="l" state="m"/>
    <connection from=":J0_16" to="J02E" fromLane="0" toLane="0" dir="l" state="M"/>
    <connection from=":J0_2" to="J02W" fromLane="0" toLane="1" dir="r" state="M"/>
    <connection from=":J0_3" to="J02S" fromLane="0" toLane="1" dir="s" state="M"/>
    <connection from=":J0_4" to="J02N" fromLane="0" toLane="0" dir="r" state="M"/>
    <connection from=":J0_5" to="J02W" fromLane="0" toLane="0" dir="s" state="M"/>
    <connection from=":J0_5" to="J02W" fromLane="1" toLane="1" dir="s" state="M"/>
    <connection from=":J0_7" to="J02S" fromLane="0" toLane="1" dir="l" state="M"/>
    <connection from=":J0_8" to="J02N" fromLane="0" toLane="0" dir="s" state="M"/>
    <connection from=":J0_9" to="J02W" fromLane="0" toLane="0" via=":J0_17_0" dir="l" state="m"/>
    <connection from=":J0_17" to="J02W" fromLane="0" toLane="0" dir="l" state="M"/>
    <connection from=":J0_10" to="J02E" fromLane="0" toLane="1" dir="r" state="M"/>
    <connection from=":J0_11" to="J02N" fromLane="0" toLane="1" dir="s" state="M"/>
    <connection from=":J0_12" to="J02S" fromLane="0" toLane="0" dir="r" state="M"/>
    <connection from=":J0_13" to="J02E" fromLane="0" toLane="0" dir="s" state="M"/>
    <connection from=":J0_13" to="J02E" fromLane="1" toLane="1" dir="s" state="M"/>
    <connection from=":J0_15" to="J02N" fromLane="0" toLane="1" dir="l" state="M"/>
    <connection from=":N_0" to="N2J0" fromLane="0" toLane="1" dir="t" state="M"/>
    <connection from=":S_0" to="S2J0" fromLane="0" toLane="1" dir="t" state="M"/>
    <connection from=":W_0" to="W2J0" fromLane="0" toLane="1" dir="t" state="M"/>

</net>
